<ObjectContainer version="11" name="top_deck_c2_add" tags="" type="" editorBuildChangelist="10562704" entityCountPLA="0" entityCountALE="0" entityCountStatic="2" entityCountDynamic="0" entityCountUnique="0" minBounds="6.469063401222229,-24.877796292304993,-0.77054858207702637" maxBounds="7.8302695751190186,-21.056193947792053,1.7705519199371338" radius="27.177673" crcSOC="2303331020">
 <StaticEntityTags>
  <Tags>
   <Tag TagId="0e515dc0-2cd7-4b2e-8578-f14a234f5eed"/>
   <Tag TagId="9ab4a7dd-0a3a-4850-b0b3-481df6ea78c3"/>
   <Tag TagId="849b8481-5893-4301-964e-4f39f3e27ad8"/>
   <Tag TagId="00ead468-9073-485b-a6df-ca6b94053603"/>
   <Tag TagId="99b98536-c1a5-4062-b895-b0c5e4482a14"/>
   <Tag TagId="c4ec8876-3979-4a9d-9d1c-83375094c9b7"/>
   <Tag TagId="da9672e0-71c5-4c46-98a6-5746fcb83cd2"/>
   <Tag TagId="afd66f73-2769-4e3f-b17c-a08c6dd1b361"/>
   <Tag TagId="65c060b9-cf53-4706-93e7-9184a27cc9c1"/>
   <Tag TagId="75d84438-295e-409a-8a0f-9a530cc14218"/>
   <Tag TagId="04cb0de3-43e5-4c2e-9234-a61c8e31608f"/>
   <Tag TagId="612e0d16-9961-4deb-9dd3-d98351d50ceb"/>
   <Tag TagId="fb1b0b03-f91f-4b1a-8683-17a8e6b10296"/>
   <Tag TagId="a200fe19-284b-47d5-a4c2-83adbc5814ea"/>
   <Tag TagId="d88a4dd7-8289-4a29-b8c2-59fdaf276c93"/>
   <Tag TagId="e0b2d2b3-a446-4bdc-a5f2-e9ca80835a1d"/>
   <Tag TagId="009b77f0-af48-4e4d-8759-994c930de504"/>
   <Tag TagId="6bd5ceb2-696b-43ff-b37e-1844e72debcc"/>
   <Tag TagId="eac0031a-3373-451e-80cc-4148d13a213d"/>
   <Tag TagId="b5e7e39d-18cd-42d8-85b0-7862c0075765"/>
  </Tags>
 </StaticEntityTags>
 <Health />
 <StreamingOCs>
  <OC name="top_deck_c2_add.soc" tags="" staticEntityCount="2" guid="4babf092-8d31-4ce4-6aa3-ac7c03107eac" radius="27.177673"/>
 </StreamingOCs>
 <TileXmlEntry>
  <TilePipeEntries>
   <TilePipeEntry name="MainPower" class="Power"/>
   <TilePipeEntry name="Heat" class="Heat"/>
   <TilePipeEntry name="AtmosphereIn" class="Input"/>
   <TilePipeEntry name="AtmosphereOut" class="Output"/>
  </TilePipeEntries>
  <TileItemPortEntries>
   <ItemPort minSize="1" maxSize="1" interactionSize="-1" interactionOffset="6.5,-23,-1.5" type="Noattach" name="Port0_Door_NoRoomConnector_Template-000[Top_Deck_C2_Add_SETUP]" display_name="Port0_Door_NoRoomConnector_Template-000[Top_Deck_C2_Add_SETUP]" flags="static" requiredTags="" portTags="" selectTag="" resourceLinkToParent="1" gridBehavior="Interior" helper="" offset="0,0,0" rotation="1,0,0,0">
    <Types />
    <AttachmentPoints />
    <connections>
     <connection pipe="MainPower" pipeClass="Power"/>
     <connection pipe="Heat" pipeClass="Heat"/>
     <connection pipe="AtmosphereIn" pipeClass="Input"/>
     <connection pipe="AtmosphereOut" pipeClass="Output"/>
    </connections>
   </ItemPort>
  </TileItemPortEntries>
 </TileXmlEntry>
</ObjectContainer>
